&domains            
 dt            = 1.0d0  
/

&end
 
